Version 4
SHEET 1 6116 1016
WIRE 5664 -704 5632 -704
WIRE 5760 -704 5728 -704
WIRE 5936 -656 5936 -704
WIRE 3504 -608 3504 -624
WIRE 3552 -608 3504 -608
WIRE 3616 -608 3600 -608
WIRE 3680 -608 3616 -608
WIRE 3792 -608 3760 -608
WIRE 3872 -608 3792 -608
WIRE 4128 -608 3872 -608
WIRE 3504 -592 3504 -608
WIRE 5632 -576 5632 -704
WIRE 5760 -576 5760 -704
WIRE 2128 -544 2128 -560
WIRE 2224 -544 2128 -544
WIRE 2320 -544 2288 -544
WIRE 2400 -544 2320 -544
WIRE 2480 -544 2400 -544
WIRE 2496 -544 2480 -544
WIRE 2560 -544 2544 -544
WIRE 2720 -544 2640 -544
WIRE 2768 -544 2720 -544
WIRE 2896 -544 2848 -544
WIRE 2976 -544 2896 -544
WIRE 3072 -544 2976 -544
WIRE 3168 -544 3152 -544
WIRE 3312 -544 3232 -544
WIRE 3440 -544 3312 -544
WIRE 5168 -544 4992 -544
WIRE 5632 -544 5408 -544
WIRE 2128 -528 2128 -544
WIRE 3792 -528 3792 -544
WIRE 3840 -528 3792 -528
WIRE 3872 -528 3840 -528
WIRE 4128 -528 4128 -608
WIRE 4144 -528 4128 -528
WIRE 4288 -528 4208 -528
WIRE 4384 -528 4288 -528
WIRE 4512 -528 4384 -528
WIRE 4592 -528 4576 -528
WIRE 4656 -528 4592 -528
WIRE 4896 -528 4656 -528
WIRE 5328 -528 5296 -528
WIRE 5408 -528 5408 -544
WIRE 4992 -512 4992 -544
WIRE 4992 -512 4960 -512
WIRE 5168 -512 5152 -512
WIRE 5936 -512 5936 -656
WIRE 5936 -512 5760 -512
WIRE 4896 -496 4848 -496
WIRE 2016 -480 1984 -480
WIRE 2064 -480 2016 -480
WIRE 3504 -480 3504 -496
WIRE 3584 -480 3504 -480
WIRE 5872 -480 5760 -480
WIRE 5968 -480 5872 -480
WIRE 6048 -480 6032 -480
WIRE 1536 -464 1536 -480
WIRE 1584 -464 1536 -464
WIRE 1648 -464 1632 -464
WIRE 1728 -464 1648 -464
WIRE 1808 -464 1728 -464
WIRE 1872 -464 1808 -464
WIRE 1984 -464 1984 -480
WIRE 1984 -464 1936 -464
WIRE 2320 -464 2320 -480
WIRE 2368 -464 2320 -464
WIRE 2400 -464 2368 -464
WIRE 2640 -464 2640 -480
WIRE 2688 -464 2640 -464
WIRE 2720 -464 2688 -464
WIRE 2896 -464 2896 -480
WIRE 2944 -464 2896 -464
WIRE 2976 -464 2944 -464
WIRE 1536 -448 1536 -464
WIRE 2128 -416 2128 -432
WIRE 2208 -416 2128 -416
WIRE 4848 -416 4848 -496
WIRE 4992 -416 4992 -512
WIRE 4992 -416 4848 -416
WIRE 5152 -416 5152 -512
WIRE 5296 -416 5296 -528
WIRE 5296 -416 5232 -416
WIRE 512 -400 256 -400
WIRE 720 -400 512 -400
WIRE 736 -400 720 -400
WIRE 1040 -400 864 -400
WIRE 1056 -400 1040 -400
WIRE 1280 -400 1184 -400
WIRE 1296 -400 1280 -400
WIRE 1472 -400 1344 -400
WIRE 864 -384 864 -400
WIRE 1728 -384 1728 -400
WIRE 1776 -384 1728 -384
WIRE 1808 -384 1776 -384
WIRE -1136 -352 -1136 -368
WIRE -1136 -352 -1168 -352
WIRE 1632 -352 1616 -352
WIRE 1536 -336 1536 -352
WIRE 1616 -336 1616 -352
WIRE 1616 -336 1536 -336
WIRE -704 -320 -704 -352
WIRE 688 -320 672 -320
WIRE 864 -320 688 -320
WIRE 1184 -320 1008 -320
WIRE -1536 -272 -1536 -288
WIRE -1536 -272 -1568 -272
WIRE -816 -272 -848 -272
WIRE -768 -272 -816 -272
WIRE -1136 -256 -1136 -288
WIRE -960 -256 -1136 -256
WIRE -944 -256 -960 -256
WIRE -848 -256 -848 -272
WIRE -848 -256 -896 -256
WIRE -1136 -240 -1136 -256
WIRE -704 -208 -704 -224
WIRE -368 -208 -704 -208
WIRE -1536 -192 -1536 -208
WIRE -1408 -192 -1536 -192
WIRE -1200 -192 -1344 -192
WIRE -1024 -176 -1024 -192
WIRE -1536 -160 -1536 -192
WIRE -1056 -144 -1136 -144
WIRE -3376 -128 -3376 -144
WIRE -3152 -128 -3376 -128
WIRE -1056 -128 -1056 -144
WIRE -3072 -112 -3072 -128
WIRE -2848 -112 -2976 -112
WIRE -2768 -112 -2848 -112
WIRE -2704 -112 -2768 -112
WIRE -2608 -112 -2624 -112
WIRE -2528 -112 -2608 -112
WIRE -2464 -112 -2528 -112
WIRE -2336 -112 -2384 -112
WIRE -2256 -112 -2336 -112
WIRE -2208 -112 -2256 -112
WIRE -2032 -112 -2128 -112
WIRE -1968 -112 -2032 -112
WIRE -1904 -112 -1968 -112
WIRE -1872 -112 -1904 -112
WIRE -1728 -112 -1840 -112
WIRE -1600 -112 -1728 -112
WIRE -1456 -64 -1536 -64
WIRE -1456 -48 -1456 -64
WIRE -2768 -32 -2768 -48
WIRE -2768 -32 -2848 -32
WIRE -2528 -32 -2528 -48
WIRE -2528 -32 -2608 -32
WIRE -2256 -32 -2256 -48
WIRE -2256 -32 -2336 -32
WIRE -1968 -32 -1968 -48
WIRE -1968 -32 -2032 -32
WIRE -3376 0 -3376 -48
WIRE 144 16 144 0
WIRE 832 64 832 16
WIRE 144 80 144 16
WIRE 256 80 256 -400
WIRE 256 80 144 80
WIRE 144 96 144 80
WIRE 144 112 144 96
WIRE 608 112 144 112
WIRE -3376 128 -3376 80
WIRE 832 144 832 64
WIRE 832 144 336 144
WIRE 752 192 752 176
WIRE 144 208 144 112
WIRE 336 208 336 144
WIRE 608 208 608 112
WIRE 832 208 832 144
WIRE -368 256 -368 -208
WIRE -192 256 -368 256
WIRE 32 256 -128 256
WIRE 80 256 32 256
WIRE 464 256 400 256
WIRE 544 256 464 256
WIRE 944 256 896 256
WIRE 1232 256 1232 16
WIRE 1232 256 1024 256
WIRE 1360 256 1232 256
WIRE -3376 272 -3376 208
WIRE 144 320 144 304
WIRE 224 320 144 320
WIRE 336 320 336 304
WIRE 336 320 224 320
WIRE 608 320 608 304
WIRE 704 320 608 320
WIRE 832 320 832 304
WIRE 832 320 704 320
WIRE 32 400 32 256
WIRE 944 400 944 256
WIRE 944 400 32 400
WIRE 464 432 464 256
WIRE 928 432 464 432
WIRE 1232 432 1232 256
WIRE 1232 432 1008 432
WIRE -3376 448 -3376 352
WIRE 464 464 464 432
WIRE -1920 528 -1920 512
WIRE -928 560 -928 464
WIRE -720 560 -928 560
WIRE -1920 608 -1920 592
WIRE -1648 608 -1920 608
WIRE -1424 608 -1648 608
WIRE -1248 608 -1360 608
WIRE -1136 608 -1168 608
WIRE -992 608 -1072 608
WIRE -720 608 -720 560
WIRE -192 608 -720 608
WIRE 112 608 -128 608
WIRE 752 608 112 608
WIRE 1232 608 1232 512
WIRE 1232 608 832 608
WIRE 1360 608 1232 608
WIRE -3376 624 -3376 528
WIRE -1920 624 -1920 608
WIRE -832 656 -928 656
WIRE 224 656 224 320
WIRE 704 656 704 320
WIRE 1360 656 1360 608
WIRE -2240 672 -2272 672
WIRE -2112 672 -2176 672
WIRE -1984 672 -2112 672
WIRE -832 672 -832 656
WIRE -816 672 -832 672
WIRE -3376 704 -3376 640
WIRE -3376 704 -3392 704
WIRE 112 704 112 608
WIRE 160 704 112 704
WIRE 832 704 768 704
WIRE 1232 704 1232 608
WIRE 1232 704 912 704
WIRE -2352 720 -2352 672
WIRE -2352 720 -2432 720
WIRE -2272 720 -2352 720
WIRE -1920 736 -1920 720
WIRE -1840 736 -1920 736
WIRE -1824 736 -1840 736
WIRE -832 736 -928 736
WIRE -1840 752 -1840 736
WIRE -928 752 -928 736
WIRE 1232 752 1232 704
WIRE -2432 768 -2432 720
WIRE 224 784 224 752
WIRE 464 784 224 784
WIRE 704 784 704 752
WIRE 704 784 464 784
WIRE 464 832 464 784
WIRE -2432 880 -2432 848
WIRE -2336 880 -2432 880
WIRE -2272 880 -2272 784
WIRE -2272 880 -2336 880
WIRE -2336 944 -2336 880
WIRE -2144 944 -2336 944
WIRE -1648 944 -1648 608
WIRE -1648 944 -2080 944
FLAG -192 32 0
FLAG -192 -48 +Vs
FLAG 144 -64 +Vs
FLAG 832 -64 +Vs
FLAG 1232 -64 +Vs
FLAG 1360 320 0
FLAG 464 528 0
FLAG 464 912 0
FLAG 1360 720 0
FLAG 1232 832 0
FLAG 832 64 u2
FLAG 144 96 u1
FLAG -928 384 +Vs
FLAG -928 752 0
FLAG -1072 688 +Vs
FLAG 688 -320 0
FLAG 1008 -320 0
FLAG 1344 -320 0
FLAG 1536 -256 0
FLAG 1632 -288 0
FLAG 2016 -400 0
FLAG 2128 -336 0
FLAG 2208 -352 0
FLAG 1344 -480 +Vs
FLAG 1536 -560 +Vs
FLAG 2016 -560 +Vs
FLAG 2128 -640 +Vs
FLAG 4288 -448 0
FLAG 4384 -464 0
FLAG 1776 -384 0
FLAG 2368 -464 0
FLAG 2688 -464 0
FLAG 4656 -464 0
FLAG -2112 752 0
FLAG -1920 816 0
FLAG -1824 800 0
FLAG -2112 592 +Vs
FLAG -1920 512 +Vs
FLAG -2432 800 0
FLAG -2768 -32 0
FLAG -2528 -32 0
FLAG -2256 -32 0
FLAG -1968 -32 0
FLAG -1344 -112 0
FLAG -1136 -64 0
FLAG -1056 -64 0
FLAG -4368 256 m
FLAG -4368 336 0
FLAG -4368 400 c1
FLAG -4368 528 c2
FLAG -4368 656 c3
FLAG -4368 480 0
FLAG -4368 608 0
FLAG -4368 736 0
FLAG -4000 448 0
FLAG -4000 368 c4
FLAG -3376 704 0
FLAG -1136 -368 +Vs
FLAG -1344 -272 +Vs
FLAG -3072 -32 0
FLAG -2976 -32 0
FLAG -4000 592 0
FLAG -4000 512 c5
FLAG -4000 752 0
FLAG -4000 672 c6
FLAG -816 -192 0
FLAG -704 -128 0
FLAG -816 -352 +Vs
FLAG -704 -352 +Vs
FLAG 4928 -480 +Vs
FLAG 4784 -576 0
FLAG 4784 -656 -Vs
FLAG 4928 -544 -Vs
FLAG 5072 -416 0
FLAG 5200 -560 -Vs
FLAG 5200 -496 +Vs
FLAG 5408 -464 0
FLAG 5632 -480 0
FLAG 5632 -512 0
FLAG 5824 -544 0
FLAG 5936 -704 +Vs
FLAG 6000 -656 0
FLAG 5872 -336 0
FLAG 6048 -400 0
FLAG -4368 112 m2
FLAG -4368 192 0
FLAG -4368 -96 m3
FLAG -4368 -16 0
FLAG 2944 -464 0
FLAG 3312 -464 0
FLAG 3504 -400 0
FLAG 3584 -416 0
FLAG 3312 -624 +Vs
FLAG 3504 -704 +Vs
FLAG 3840 -528 0
FLAG -1728 -32 0
FLAG -1536 16 0
FLAG -1456 16 0
FLAG -1536 -288 +Vs
FLAG -1728 -192 +Vs
FLAG 512 -336 0
DATAFLAG -928 544 ""
DATAFLAG -912 656 ""
DATAFLAG -1008 608 ""
DATAFLAG 112 608 ""
DATAFLAG 224 608 ""
DATAFLAG 224 784 ""
DATAFLAG 704 784 ""
DATAFLAG 704 640 ""
DATAFLAG 800 704 ""
DATAFLAG 160 320 ""
DATAFLAG 64 256 ""
DATAFLAG 336 176 ""
DATAFLAG 384 144 ""
DATAFLAG 560 144 ""
DATAFLAG 608 192 ""
DATAFLAG 768 320 ""
DATAFLAG 832 176 ""
DATAFLAG 4672 -528 ""
SYMBOL res 128 -80 R0
SYMATTR InstName R1
SYMATTR Value 330
SYMBOL res 816 -80 R0
SYMATTR InstName R2
SYMATTR Value 330
SYMBOL voltage -192 -64 R0
WINDOW 123 0 0 Left 0
WINDOW 39 0 0 Left 0
SYMATTR InstName V1
SYMATTR Value 12
SYMBOL npn 80 208 R0
SYMATTR InstName Q1
SYMATTR Value 2N3904
SYMBOL npn 400 208 M0
SYMATTR InstName Q2
SYMATTR Value 2N3904
SYMBOL npn 544 208 R0
SYMATTR InstName Q3
SYMATTR Value 2N3904
SYMBOL npn 896 208 M0
SYMATTR InstName Q4
SYMATTR Value 2N3904
SYMBOL res 1216 -80 R0
SYMATTR InstName R3
SYMATTR Value 4.7k
SYMBOL res 1040 240 R90
WINDOW 0 0 56 VBottom 2
WINDOW 3 32 56 VTop 2
SYMATTR InstName R4
SYMATTR Value 2.2k
SYMBOL cap 1344 256 R0
SYMATTR InstName C1
SYMATTR Value 1µ
SYMBOL cap 448 464 R0
SYMATTR InstName C2
SYMATTR Value 1µ
SYMBOL res 1024 416 R90
WINDOW 0 0 56 VBottom 2
WINDOW 3 32 56 VTop 2
SYMATTR InstName R5
SYMATTR Value 2.2k
SYMBOL res 1216 416 R0
SYMATTR InstName R6
SYMATTR Value 4.7k
SYMBOL npn 160 656 R0
SYMATTR InstName Q5
SYMATTR Value 2N3904
SYMBOL npn 768 656 M0
SYMATTR InstName Q6
SYMATTR Value 2N3904
SYMBOL res 448 816 R0
SYMATTR InstName R7
SYMATTR Value 330
SYMBOL res 848 592 R90
WINDOW 0 0 56 VBottom 2
WINDOW 3 32 56 VTop 2
SYMATTR InstName R8
SYMATTR Value 2.2k
SYMBOL res 928 688 R90
WINDOW 0 0 56 VBottom 2
WINDOW 3 32 56 VTop 2
SYMATTR InstName R9
SYMATTR Value 2.2k
SYMBOL cap 1344 656 R0
SYMATTR InstName C3
SYMATTR Value 1µ
SYMBOL res 1216 736 R0
SYMATTR InstName R10
SYMATTR Value 2.2k
SYMBOL cap -128 240 R90
WINDOW 0 0 32 VBottom 2
WINDOW 3 32 32 VTop 2
SYMATTR InstName C4
SYMATTR Value 1µ
SYMBOL cap -128 592 R90
WINDOW 0 0 32 VBottom 2
WINDOW 3 32 32 VTop 2
SYMATTR InstName C5
SYMATTR Value 1µ
SYMBOL npn -992 560 R0
SYMATTR InstName Q7
SYMATTR Value 2N3904
SYMBOL cap -1072 592 R90
WINDOW 0 -7 37 VBottom 2
WINDOW 3 32 32 VTop 2
SYMATTR InstName C6
SYMATTR Value 1µ
SYMBOL res -1152 592 R90
WINDOW 0 0 56 VBottom 2
WINDOW 3 32 56 VTop 2
SYMATTR InstName R12
SYMATTR Value 330
SYMBOL res -944 368 R0
SYMATTR InstName R13
SYMATTR Value 4.7K
SYMBOL res -944 640 R0
SYMATTR InstName R14
SYMATTR Value 2.2k
SYMBOL cap -848 672 R0
SYMATTR InstName C7
SYMATTR Value 1µ
SYMBOL res -1088 592 R0
SYMATTR InstName R15
SYMATTR Value 2.2k
SYMBOL cap 784 -416 R90
WINDOW 0 0 32 VBottom 2
WINDOW 3 32 32 VTop 2
SYMATTR InstName C8
SYMATTR Value 470p
SYMBOL ind 768 -384 R270
WINDOW 0 32 56 VTop 2
WINDOW 3 5 56 VBottom 2
SYMATTR InstName L1
SYMATTR Value 270µ
SYMBOL res 848 -416 R0
SYMATTR InstName R11
SYMATTR Value 15.8
SYMBOL cap 1104 -416 R90
WINDOW 0 0 32 VBottom 2
WINDOW 3 32 32 VTop 2
SYMATTR InstName C9
SYMATTR Value 470p
SYMBOL cap 1344 -416 R90
WINDOW 0 0 32 VBottom 2
WINDOW 3 32 32 VTop 2
SYMATTR InstName C10
SYMATTR Value 1µ
SYMBOL res 1328 -416 R0
SYMATTR InstName R17
SYMATTR Value 3.3k
SYMBOL res 1328 -496 R0
SYMATTR InstName R18
SYMATTR Value 10k
SYMBOL res 1168 -416 R0
SYMATTR InstName R16
SYMATTR Value 15.8
SYMBOL ind 1088 -384 R270
WINDOW 0 32 56 VTop 2
WINDOW 3 5 56 VBottom 2
SYMATTR InstName L2
SYMATTR Value 270µ
SYMBOL npn 1472 -448 R0
SYMATTR InstName Q8
SYMATTR Value 2N3904
SYMBOL res 1520 -576 R0
SYMATTR InstName R19
SYMATTR Value 3.3k
SYMBOL res 1520 -352 R0
SYMATTR InstName R20
SYMATTR Value 1k
SYMBOL cap 1616 -352 R0
SYMATTR InstName C11
SYMATTR Value 10µ
SYMBOL cap 1648 -480 R90
WINDOW 0 0 32 VBottom 2
WINDOW 3 32 32 VTop 2
SYMATTR InstName C12
SYMATTR Value 1µ
SYMBOL res 2000 -496 R0
SYMATTR InstName R21
SYMATTR Value 3.3k
SYMBOL res 2000 -576 R0
SYMATTR InstName R22
SYMATTR Value 10k
SYMBOL npn 2064 -528 R0
SYMATTR InstName Q9
SYMATTR Value 2N3904
SYMBOL res 2112 -656 R0
SYMATTR InstName R23
SYMATTR Value 3.3k
SYMBOL res 2112 -432 R0
SYMATTR InstName R24
SYMATTR Value 1k
SYMBOL cap 2192 -416 R0
SYMATTR InstName C13
SYMATTR Value 10µ
SYMBOL res 4272 -544 R0
SYMATTR InstName R25
SYMATTR Value 10K
SYMBOL cap 2288 -560 R90
WINDOW 0 0 32 VBottom 2
WINDOW 3 32 32 VTop 2
SYMATTR InstName C15
SYMATTR Value 1µ
SYMBOL cap 1712 -464 R0
SYMATTR InstName C14
SYMATTR Value 470p
SYMBOL ind 1792 -480 R0
SYMATTR InstName L3
SYMATTR Value 270µ
SYMBOL cap 1936 -480 R90
WINDOW 0 0 32 VBottom 2
WINDOW 3 32 32 VTop 2
SYMATTR InstName C16
SYMATTR Value 1µ
SYMBOL cap 2304 -544 R0
SYMATTR InstName C17
SYMATTR Value 470p
SYMBOL ind 2384 -560 R0
SYMATTR InstName L4
SYMATTR Value 270µ
SYMBOL cap 2544 -560 R90
WINDOW 0 0 32 VBottom 2
WINDOW 3 32 32 VTop 2
SYMATTR InstName C18
SYMATTR Value 1µ
SYMBOL cap 2624 -544 R0
SYMATTR InstName C19
SYMATTR Value 470p
SYMBOL ind2 2704 -560 R0
SYMATTR InstName L5
SYMATTR Value 270µ
SYMATTR Type ind
SYMBOL res 4496 -512 R270
WINDOW 0 32 56 VTop 2
WINDOW 3 0 56 VBottom 2
SYMATTR InstName R28
SYMATTR Value 8k
SYMBOL cap 4672 -464 R180
WINDOW 0 24 56 Left 2
WINDOW 3 24 8 Left 2
SYMATTR InstName C21
SYMATTR Value 1n
SYMBOL res -2128 656 R0
SYMATTR InstName R30
SYMATTR Value 2.2k
SYMBOL res -2128 576 R0
SYMATTR InstName 1k
SYMATTR Value 10k
SYMBOL npn -1984 624 R0
SYMATTR InstName Q12
SYMATTR Value 2N3904
SYMBOL res -1936 720 R0
SYMATTR InstName R33
SYMATTR Value 100
SYMBOL cap -1840 736 R0
SYMATTR InstName C23
SYMATTR Value 1µ
SYMBOL ind2 -1936 512 R0
SYMATTR InstName L6
SYMATTR Value 100µ
SYMATTR Type ind
SYMBOL cap -2288 720 R0
SYMATTR InstName C24
SYMATTR Value 1n
SYMBOL cap -2080 928 R90
WINDOW 0 0 32 VBottom 2
WINDOW 3 32 32 VTop 2
SYMATTR InstName 1u
SYMATTR Value 1n
SYMBOL ind -2448 704 R0
SYMATTR InstName L7
SYMATTR Value 1µ
SYMBOL ind -2448 784 R0
SYMATTR InstName L8
SYMATTR Value 13.7µ
SYMBOL cap -1360 592 R90
WINDOW 0 0 32 VBottom 2
WINDOW 3 32 32 VTop 2
SYMATTR InstName C27
SYMATTR Value 1µ
SYMBOL res -2256 656 R90
WINDOW 0 0 56 VBottom 2
WINDOW 3 32 56 VTop 2
SYMATTR InstName R31
SYMATTR Value 2.2k
SYMBOL cap -2176 656 R90
WINDOW 0 0 32 VBottom 2
WINDOW 3 32 32 VTop 2
SYMATTR InstName 1n
SYMATTR Value 1n
SYMBOL cap 4368 -528 R0
SYMATTR InstName C22
SYMATTR Value 10n
SYMBOL ind -2864 -128 R0
SYMATTR InstName L9
SYMATTR Value 33µ
SYMBOL cap -2784 -112 R0
SYMATTR InstName C25
SYMATTR Value 3n
SYMBOL ind -2624 -128 R0
SYMATTR InstName L10
SYMATTR Value 22µ
SYMBOL cap -2544 -112 R0
SYMATTR InstName C26
SYMATTR Value 2n
SYMBOL ind -2352 -128 R0
SYMATTR InstName L11
SYMATTR Value 22µ
SYMBOL cap -2272 -112 R0
SYMATTR InstName C28
SYMATTR Value 1n
SYMBOL cap -1984 -112 R0
SYMATTR InstName C29
SYMATTR Value 1n
SYMBOL ind -2048 -128 R0
SYMATTR InstName L12
SYMATTR Value 10µ
SYMBOL res -2368 -128 R90
WINDOW 0 0 56 VBottom 2
WINDOW 3 32 56 VTop 2
SYMATTR InstName R35
SYMATTR Value 330
SYMBOL res -2112 -128 R90
WINDOW 0 0 56 VBottom 2
WINDOW 3 32 56 VTop 2
SYMATTR InstName R36
SYMATTR Value 330
SYMBOL cap -1344 -208 R90
WINDOW 0 0 32 VBottom 2
WINDOW 3 32 32 VTop 2
SYMATTR InstName C30
SYMATTR Value 1µ
SYMBOL res -1360 -288 R0
SYMATTR InstName R37
SYMATTR Value 10K
SYMBOL res -1360 -208 R0
SYMATTR InstName R38
SYMATTR Value 3.3K
SYMBOL npn -1200 -240 R0
SYMATTR InstName Q11
SYMATTR Value 2N3904
SYMBOL res -1152 -160 R0
SYMATTR InstName R39
SYMATTR Value 3.3k
SYMBOL cap -1072 -128 R0
SYMATTR InstName C31
SYMATTR Value 10µ
SYMBOL res -1152 -384 R0
SYMATTR InstName R40
SYMATTR Value 2.2k
SYMBOL voltage -4368 240 R0
WINDOW 123 0 0 Left 0
WINDOW 39 0 0 Left 0
WINDOW 3 24 44 Left 2
SYMATTR Value SINE(0.1 30m 3k)
SYMATTR InstName V3
SYMBOL voltage -4368 384 R0
WINDOW 123 0 0 Left 0
WINDOW 39 0 0 Left 0
SYMATTR InstName V6
SYMATTR Value SINE(0 0.3m 500k)
SYMBOL voltage -4368 512 R0
WINDOW 123 0 0 Left 0
WINDOW 39 0 0 Left 0
SYMATTR InstName V7
SYMATTR Value SINE(0 0.3m 0.732MEG)
SYMBOL voltage -4368 640 R0
WINDOW 123 0 0 Left 0
WINDOW 39 0 0 Left 0
SYMATTR InstName V8
SYMATTR Value SINE(0 0.3m 0.812MEG)
SYMBOL voltage -4000 352 R0
WINDOW 123 0 0 Left 0
WINDOW 39 0 0 Left 0
SYMATTR InstName V9
SYMATTR Value SINE(0 0.3m 0.772MEG)
SYMBOL bv -3376 -16 R0
SYMATTR InstName B1
SYMATTR Value V=V(m)*V(c1)
SYMBOL bv -3376 112 R0
SYMATTR InstName B3
SYMATTR Value V=V(m2)*V(c2)
SYMBOL bv -3376 256 R0
SYMATTR InstName B4
SYMATTR Value V=V(m)*V(c3)
SYMBOL bv -3376 608 R0
SYMATTR InstName B5
SYMATTR Value V=V(m3)*V(c4)
SYMBOL cap -1840 -128 R90
WINDOW 0 0 32 VBottom 2
WINDOW 3 32 32 VTop 2
SYMATTR InstName C32
SYMATTR Value 1µ
SYMBOL ind2 -3088 -128 R0
SYMATTR InstName L13
SYMATTR Value 1µ
SYMATTR Type ind
SYMBOL ind2 -2992 -128 R0
SYMATTR InstName L14
SYMATTR Value 15µ
SYMATTR Type ind
SYMBOL res -3056 -144 R90
WINDOW 0 0 56 VBottom 2
WINDOW 3 32 56 VTop 2
SYMATTR InstName R44
SYMATTR Value 1
SYMBOL voltage -4000 496 R0
WINDOW 123 0 0 Left 0
WINDOW 39 0 0 Left 0
SYMATTR InstName V11
SYMATTR Value SINE(0 0.3m 100k)
SYMBOL bv -3376 -144 R0
SYMATTR InstName B6
SYMATTR Value V=V(m)*V(c5)
SYMBOL res -2608 -128 R90
WINDOW 0 0 56 VBottom 2
WINDOW 3 32 56 VTop 2
SYMATTR InstName R34
SYMATTR Value 330
SYMBOL voltage -4000 656 R0
WINDOW 123 0 0 Left 0
WINDOW 39 0 0 Left 0
SYMATTR InstName V2
SYMATTR Value SINE(0 0.3m 200k)
SYMBOL bv -3376 432 R0
SYMATTR InstName B2
SYMATTR Value V=V(m)*V(c6)
SYMBOL res -832 -288 R0
SYMATTR InstName R45
SYMATTR Value 3.3k
SYMBOL res -832 -368 R0
SYMATTR InstName R46
SYMATTR Value 10k
SYMBOL npn -768 -320 R0
SYMATTR InstName Q14
SYMATTR Value 2N3904
SYMBOL res -720 -224 R0
SYMATTR InstName R47
SYMATTR Value 1k
SYMBOL cap -896 -272 R90
WINDOW 0 0 32 VBottom 2
WINDOW 3 32 32 VTop 2
SYMATTR InstName C34
SYMATTR Value 1µ
SYMBOL OpAmps\\UniversalOpAmp2 4928 -512 M180
WINDOW 0 77 -22 Left 2
SYMATTR InstName U1
SYMBOL OpAmps\\UniversalOpAmp2 5200 -528 M180
SYMATTR InstName U2
SYMBOL voltage 4784 -672 R0
WINDOW 123 0 0 Left 0
WINDOW 39 0 0 Left 0
SYMATTR InstName V4
SYMATTR Value -12
SYMBOL res 5168 -432 R90
WINDOW 0 0 56 VBottom 2
WINDOW 3 32 56 VTop 2
SYMATTR InstName R48
SYMATTR Value 330
SYMBOL res 5248 -432 R90
WINDOW 0 0 56 VBottom 2
WINDOW 3 32 56 VTop 2
SYMATTR InstName R49
SYMATTR Value 1k
SYMBOL res 5424 -544 R90
WINDOW 0 0 56 VBottom 2
WINDOW 3 32 56 VTop 2
SYMATTR InstName R50
SYMATTR Value 8k
SYMBOL cap 5392 -528 R0
SYMATTR InstName C36
SYMATTR Value 1n
SYMBOL LM386 5696 -528 R0
SYMATTR InstName U3
SYMBOL cap 5728 -720 R90
WINDOW 0 0 32 VBottom 2
WINDOW 3 32 32 VTop 2
SYMATTR InstName C37
SYMATTR Value 10µ
SYMBOL cap 5824 -560 R90
WINDOW 0 0 32 VBottom 2
WINDOW 3 32 32 VTop 2
SYMATTR InstName C38
SYMATTR Value 10µ
SYMBOL cap 6000 -672 R90
WINDOW 0 0 32 VBottom 2
WINDOW 3 32 32 VTop 2
SYMATTR InstName C39
SYMATTR Value 0.05µ
SYMBOL cap 5856 -480 R0
SYMATTR InstName C40
SYMATTR Value 0.05µ
SYMBOL res 5856 -432 R0
SYMATTR InstName R51
SYMATTR Value 10
SYMBOL cap 6032 -496 R90
WINDOW 0 0 32 VBottom 2
WINDOW 3 32 32 VTop 2
SYMATTR InstName C41
SYMATTR Value 220µ
SYMBOL res 6032 -496 R0
SYMATTR InstName R52
SYMATTR Value 8
SYMBOL cap 5296 -544 R90
WINDOW 0 0 32 VBottom 2
WINDOW 3 32 32 VTop 2
SYMATTR InstName C42
SYMATTR Value 10µ
SYMBOL voltage -4368 96 R0
WINDOW 123 0 0 Left 0
WINDOW 39 0 0 Left 0
WINDOW 3 24 44 Left 2
SYMATTR Value SINE(0.1 30m 2k)
SYMATTR InstName V5
SYMBOL voltage -4368 -112 R0
WINDOW 123 0 0 Left 0
WINDOW 39 0 0 Left 0
WINDOW 3 24 44 Left 2
SYMATTR Value SINE(0.1 30m 4k)
SYMATTR InstName V10
SYMBOL cap 2880 -544 R0
SYMATTR InstName C43
SYMATTR Value 470p
SYMBOL ind2 2960 -560 R0
SYMATTR InstName L15
SYMATTR Value 270µ
SYMATTR Type ind
SYMBOL res 3296 -560 R0
SYMATTR InstName R54
SYMATTR Value 3.3k
SYMBOL res 3296 -640 R0
SYMATTR InstName R55
SYMATTR Value 10k
SYMBOL npn 3440 -592 R0
SYMATTR InstName Q15
SYMATTR Value 2N3904
SYMBOL res 3488 -720 R0
SYMATTR InstName R56
SYMATTR Value 3.3k
SYMBOL res 3488 -496 R0
SYMATTR InstName R57
SYMATTR Value 1k
SYMBOL cap 3568 -480 R0
SYMATTR InstName C45
SYMATTR Value 10µ
SYMBOL cap 3616 -624 R90
WINDOW 0 0 32 VBottom 2
WINDOW 3 32 32 VTop 2
SYMATTR InstName C46
SYMATTR Value 1µ
SYMBOL cap 3776 -608 R0
SYMATTR InstName C47
SYMATTR Value 470p
SYMBOL ind 3856 -624 R0
SYMATTR InstName L16
SYMATTR Value 270µ
SYMBOL cap 3168 -528 R270
WINDOW 0 32 32 VTop 2
WINDOW 3 0 32 VBottom 2
SYMATTR InstName C44
SYMATTR Value 1µ
SYMBOL res 3776 -624 R90
WINDOW 0 0 56 VBottom 2
WINDOW 3 32 56 VTop 2
SYMATTR InstName R26
SYMATTR Value 1k
SYMBOL res -1744 -208 R0
SYMATTR InstName R27
SYMATTR Value 10K
SYMBOL res -1744 -128 R0
SYMATTR InstName R41
SYMATTR Value 3.3K
SYMBOL npn -1600 -160 R0
SYMATTR InstName Q10
SYMATTR Value 2N3904
SYMBOL res -1552 -80 R0
SYMATTR InstName R42
SYMATTR Value 3.3k
SYMBOL cap -1472 -48 R0
SYMATTR InstName C33
SYMATTR Value 10µ
SYMBOL res -1552 -304 R0
SYMATTR InstName R43
SYMATTR Value 2.2k
SYMBOL diode 4144 -512 R270
WINDOW 0 32 32 VTop 2
WINDOW 3 0 32 VBottom 2
SYMATTR InstName D3
SYMATTR Value DGe
SYMBOL res 3168 -560 R90
WINDOW 0 0 56 VBottom 2
WINDOW 3 32 56 VTop 2
SYMATTR InstName R53
SYMATTR Value 10K
SYMBOL res 2656 -560 R90
WINDOW 0 0 56 VBottom 2
WINDOW 3 32 56 VTop 2
SYMATTR InstName R29
SYMATTR Value 10K
SYMBOL res 2864 -560 R90
WINDOW 0 0 56 VBottom 2
WINDOW 3 32 56 VTop 2
SYMATTR InstName R32
SYMATTR Value 100k
SYMBOL cap 496 -400 R0
SYMATTR InstName C20
SYMATTR Value 0.1µ
TEXT -512 936 Left 2 !.tran 20ms
TEXT 3728 -272 Left 2 !.model DGe D (IS=5u N=1.05 RS=1 CJO=2p M=0.3 VJ=0.3 TT=5n BV=50 IBV=1u)
TEXT 968 -256 Left 2 ;IF FILTER
TEXT 2208 -256 Left 2 ;IF AMP
TEXT 4160 -352 Left 2 ;DEMODULATOR
TEXT 4472 -352 Left 2 ;LOW PASS FILTER AT 20KHZ
TEXT -2016 1000 Left 2 ;HARTLEY OSCILLATOR VARIABLE FREQ
TEXT -1080 800 Left 2 ;PREDISTORTION
TEXT 424 -32 Left 2 ;GILLBERT MULTIPLIER
TEXT -2968 -160 Left 2 !K L13 L14 1
TEXT -2104 64 Left 2 ;RF
TEXT 4880 -320 Left 2 ;BUFFER
TEXT 5168 -328 Left 2 ;VOLUME
TEXT 5832 -248 Left 2 ;POW AMP
TEXT -2792 840 Left 2 ;VARIABLE CORE ------------->
